* NGSPICE file created from stoplight_example.ext - technology: sky130A

* Black-box entry subcircuit for sky130_ef_sc_hd__decap_12 abstract view
.subckt sky130_ef_sc_hd__decap_12 VPWR VGND VPB VNB
.ends

* Black-box entry subcircuit for sky130_fd_sc_hd__decap_6 abstract view
.subckt sky130_fd_sc_hd__decap_6 VGND VNB VPB VPWR
.ends

* Black-box entry subcircuit for sky130_fd_sc_hd__tapvpwrvgnd_1 abstract view
.subckt sky130_fd_sc_hd__tapvpwrvgnd_1 VGND VPWR
.ends

* Black-box entry subcircuit for sky130_fd_sc_hd__fill_1 abstract view
.subckt sky130_fd_sc_hd__fill_1 VGND VNB VPB VPWR
.ends

* Black-box entry subcircuit for sky130_fd_sc_hd__decap_3 abstract view
.subckt sky130_fd_sc_hd__decap_3 VGND VNB VPB VPWR
.ends

* Black-box entry subcircuit for sky130_fd_sc_hd__nand4_1 abstract view
.subckt sky130_fd_sc_hd__nand4_1 A B C D VGND VNB VPB VPWR Y
.ends

* Black-box entry subcircuit for sky130_fd_sc_hd__nand2_1 abstract view
.subckt sky130_fd_sc_hd__nand2_1 A B VGND VNB VPB VPWR Y
.ends

* Black-box entry subcircuit for sky130_fd_sc_hd__conb_1 abstract view
.subckt sky130_fd_sc_hd__conb_1 VGND VNB VPB VPWR HI LO
.ends

* Black-box entry subcircuit for sky130_fd_sc_hd__o211a_1 abstract view
.subckt sky130_fd_sc_hd__o211a_1 A1 A2 B1 C1 VGND VNB VPB VPWR X
.ends

* Black-box entry subcircuit for sky130_fd_sc_hd__and3b_1 abstract view
.subckt sky130_fd_sc_hd__and3b_1 A_N B C VGND VNB VPB VPWR X
.ends

* Black-box entry subcircuit for sky130_fd_sc_hd__decap_8 abstract view
.subckt sky130_fd_sc_hd__decap_8 VGND VNB VPB VPWR
.ends

* Black-box entry subcircuit for sky130_fd_sc_hd__nand3_1 abstract view
.subckt sky130_fd_sc_hd__nand3_1 A B C VGND VNB VPB VPWR Y
.ends

* Black-box entry subcircuit for sky130_fd_sc_hd__or3_1 abstract view
.subckt sky130_fd_sc_hd__or3_1 A B C VGND VNB VPB VPWR X
.ends

* Black-box entry subcircuit for sky130_fd_sc_hd__fill_2 abstract view
.subckt sky130_fd_sc_hd__fill_2 VGND VNB VPB VPWR
.ends

* Black-box entry subcircuit for sky130_fd_sc_hd__o21a_1 abstract view
.subckt sky130_fd_sc_hd__o21a_1 A1 A2 B1 VGND VNB VPB VPWR X
.ends

* Black-box entry subcircuit for sky130_fd_sc_hd__clkbuf_4 abstract view
.subckt sky130_fd_sc_hd__clkbuf_4 A VGND VNB VPB VPWR X
.ends

* Black-box entry subcircuit for sky130_fd_sc_hd__o41a_2 abstract view
.subckt sky130_fd_sc_hd__o41a_2 A1 A2 A3 A4 B1 VGND VNB VPB VPWR X
.ends

* Black-box entry subcircuit for sky130_fd_sc_hd__a22o_1 abstract view
.subckt sky130_fd_sc_hd__a22o_1 A1 A2 B1 B2 VGND VNB VPB VPWR X
.ends

* Black-box entry subcircuit for sky130_fd_sc_hd__decap_4 abstract view
.subckt sky130_fd_sc_hd__decap_4 VGND VNB VPB VPWR
.ends

* Black-box entry subcircuit for sky130_fd_sc_hd__buf_2 abstract view
.subckt sky130_fd_sc_hd__buf_2 A VGND VNB VPB VPWR X
.ends

* Black-box entry subcircuit for sky130_fd_sc_hd__clkbuf_16 abstract view
.subckt sky130_fd_sc_hd__clkbuf_16 A VGND VNB VPB VPWR X
.ends

* Black-box entry subcircuit for sky130_fd_sc_hd__buf_1 abstract view
.subckt sky130_fd_sc_hd__buf_1 A VGND VNB VPB VPWR X
.ends

* Black-box entry subcircuit for sky130_fd_sc_hd__dfstp_1 abstract view
.subckt sky130_fd_sc_hd__dfstp_1 CLK D SET_B VGND VNB VPB VPWR Q
.ends

* Black-box entry subcircuit for sky130_fd_sc_hd__and3_1 abstract view
.subckt sky130_fd_sc_hd__and3_1 A B C VGND VNB VPB VPWR X
.ends

* Black-box entry subcircuit for sky130_fd_sc_hd__clkbuf_1 abstract view
.subckt sky130_fd_sc_hd__clkbuf_1 A VGND VNB VPB VPWR X
.ends

* Black-box entry subcircuit for sky130_fd_sc_hd__dfrtp_1 abstract view
.subckt sky130_fd_sc_hd__dfrtp_1 CLK D RESET_B VGND VNB VPB VPWR Q
.ends

* Black-box entry subcircuit for sky130_fd_sc_hd__and4_1 abstract view
.subckt sky130_fd_sc_hd__and4_1 A B C D VGND VNB VPB VPWR X
.ends

* Black-box entry subcircuit for sky130_fd_sc_hd__a31o_1 abstract view
.subckt sky130_fd_sc_hd__a31o_1 A1 A2 A3 B1 VGND VNB VPB VPWR X
.ends

* Black-box entry subcircuit for sky130_fd_sc_hd__o22ai_1 abstract view
.subckt sky130_fd_sc_hd__o22ai_1 A1 A2 B1 B2 VGND VNB VPB VPWR Y
.ends

* Black-box entry subcircuit for sky130_fd_sc_hd__o2111a_1 abstract view
.subckt sky130_fd_sc_hd__o2111a_1 A1 A2 B1 C1 D1 VGND VNB VPB VPWR X
.ends

* Black-box entry subcircuit for sky130_fd_sc_hd__or4_2 abstract view
.subckt sky130_fd_sc_hd__or4_2 A B C D VGND VNB VPB VPWR X
.ends

* Black-box entry subcircuit for sky130_fd_sc_hd__a21o_1 abstract view
.subckt sky130_fd_sc_hd__a21o_1 A1 A2 B1 VGND VNB VPB VPWR X
.ends

* Black-box entry subcircuit for sky130_fd_sc_hd__or4_1 abstract view
.subckt sky130_fd_sc_hd__or4_1 A B C D VGND VNB VPB VPWR X
.ends

* Black-box entry subcircuit for sky130_fd_sc_hd__inv_2 abstract view
.subckt sky130_fd_sc_hd__inv_2 A VGND VNB VPB VPWR Y
.ends

* Black-box entry subcircuit for sky130_fd_sc_hd__and3_2 abstract view
.subckt sky130_fd_sc_hd__and3_2 A B C VGND VNB VPB VPWR X
.ends

* Black-box entry subcircuit for sky130_fd_sc_hd__dlygate4sd3_1 abstract view
.subckt sky130_fd_sc_hd__dlygate4sd3_1 A VGND VNB VPB VPWR X
.ends

* Black-box entry subcircuit for sky130_fd_sc_hd__clkbuf_2 abstract view
.subckt sky130_fd_sc_hd__clkbuf_2 A VGND VNB VPB VPWR X
.ends

* Black-box entry subcircuit for sky130_fd_sc_hd__mux2_1 abstract view
.subckt sky130_fd_sc_hd__mux2_1 A0 A1 S VGND VNB VPB VPWR X
.ends

* Black-box entry subcircuit for sky130_fd_sc_hd__or2_1 abstract view
.subckt sky130_fd_sc_hd__or2_1 A B VGND VNB VPB VPWR X
.ends

.subckt stoplight_example VGND VPWR clk ena rst_n ui_in[0] ui_in[1] ui_in[2] ui_in[3]
+ ui_in[4] ui_in[5] ui_in[6] ui_in[7] uio_in[0] uio_in[1] uio_in[2] uio_in[3] uio_in[4]
+ uio_in[5] uio_in[6] uio_in[7] uio_oe[0] uio_oe[1] uio_oe[2] uio_oe[3] uio_oe[4]
+ uio_oe[5] uio_oe[6] uio_oe[7] uio_out[0] uio_out[1] uio_out[2] uio_out[3] uio_out[4]
+ uio_out[5] uio_out[6] uio_out[7] uo_out[0] uo_out[1] uo_out[2] uo_out[3] uo_out[4]
+ uo_out[5] uo_out[6] uo_out[7]
XFILLER_22_177 VPWR VGND VPWR VGND sky130_ef_sc_hd__decap_12
XFILLER_22_133 VGND VGND VPWR VPWR sky130_fd_sc_hd__decap_6
XTAP_TAPCELL_ROW_9_126 VGND VPWR sky130_fd_sc_hd__tapvpwrvgnd_1
XFILLER_26_85 VPWR VGND VPWR VGND sky130_ef_sc_hd__decap_12
XFILLER_26_41 VPWR VGND VPWR VGND sky130_ef_sc_hd__decap_12
XFILLER_13_111 VGND VGND VPWR VPWR sky130_fd_sc_hd__fill_1
XFILLER_9_137 VPWR VGND VPWR VGND sky130_ef_sc_hd__decap_12
XFILLER_27_225 VPWR VGND VPWR VGND sky130_ef_sc_hd__decap_12
XTAP_TAPCELL_ROW_14_150 VGND VPWR sky130_fd_sc_hd__tapvpwrvgnd_1
XTAP_TAPCELL_ROW_6_107 VGND VPWR sky130_fd_sc_hd__tapvpwrvgnd_1
XTAP_TAPCELL_ROW_28_231 VGND VPWR sky130_fd_sc_hd__tapvpwrvgnd_1
XTAP_TAPCELL_ROW_20_186 VGND VPWR sky130_fd_sc_hd__tapvpwrvgnd_1
XFILLER_12_65 VPWR VGND VPWR VGND sky130_ef_sc_hd__decap_12
XPHY_EDGE_ROW_0_Left_34 VGND VGND VPWR VPWR sky130_fd_sc_hd__decap_3
XFILLER_30_209 VPWR VGND VPWR VGND sky130_ef_sc_hd__decap_12
X_062_ _073_/Q _062_/B _062_/C _062_/D VGND VGND VPWR VPWR _064_/B sky130_fd_sc_hd__nand4_1
XTAP_TAPCELL_ROW_25_212 VGND VPWR sky130_fd_sc_hd__tapvpwrvgnd_1
XFILLER_23_261 VPWR VGND VPWR VGND sky130_ef_sc_hd__decap_12
XFILLER_15_217 VGND VGND VPWR VPWR sky130_fd_sc_hd__decap_6
XTAP_TAPCELL_ROW_31_248 VGND VPWR sky130_fd_sc_hd__tapvpwrvgnd_1
XFILLER_9_55 VGND VGND VPWR VPWR sky130_fd_sc_hd__fill_1
XFILLER_0_57 VPWR VGND VPWR VGND sky130_ef_sc_hd__decap_12
XFILLER_2_121 VPWR VGND VPWR VGND sky130_ef_sc_hd__decap_12
XFILLER_2_165 VPWR VGND VPWR VGND sky130_ef_sc_hd__decap_12
XFILLER_20_253 VPWR VGND VPWR VGND sky130_ef_sc_hd__decap_12
XFILLER_12_209 VPWR VGND VPWR VGND sky130_ef_sc_hd__decap_12
X_045_ _067_/Q _046_/B VGND VGND VPWR VPWR _047_/B sky130_fd_sc_hd__nand2_1
XFILLER_18_97 VPWR VGND VPWR VGND sky130_ef_sc_hd__decap_12
XFILLER_18_53 VPWR VGND VPWR VGND sky130_ef_sc_hd__decap_12
XFILLER_7_279 VGND VGND VPWR VPWR sky130_fd_sc_hd__fill_1
XFILLER_20_65 VPWR VGND VPWR VGND sky130_ef_sc_hd__decap_12
XFILLER_16_301 VGND VGND VPWR VPWR sky130_fd_sc_hd__decap_6
Xstoplight_example_15 VGND VGND VPWR VPWR stoplight_example_15/HI uio_out[2] sky130_fd_sc_hd__conb_1
XFILLER_26_109 VPWR VGND VPWR VGND sky130_ef_sc_hd__decap_12
XFILLER_19_161 VGND VGND VPWR VPWR sky130_fd_sc_hd__decap_6
XFILLER_13_3 VPWR VGND VPWR VGND sky130_ef_sc_hd__decap_12
XFILLER_3_293 VPWR VGND VPWR VGND sky130_ef_sc_hd__decap_12
XFILLER_25_131 VGND VGND VPWR VPWR sky130_fd_sc_hd__fill_1
XFILLER_16_197 VPWR VGND VPWR VGND sky130_ef_sc_hd__decap_12
XFILLER_16_153 VPWR VGND VPWR VGND sky130_ef_sc_hd__decap_12
XFILLER_22_189 VGND VGND VPWR VPWR sky130_fd_sc_hd__decap_6
XTAP_TAPCELL_ROW_17_170 VGND VPWR sky130_fd_sc_hd__tapvpwrvgnd_1
XFILLER_10_329 VGND VGND VPWR VPWR sky130_fd_sc_hd__decap_3
XFILLER_10_307 VGND VGND VPWR VPWR sky130_fd_sc_hd__fill_1
XTAP_TAPCELL_ROW_9_127 VGND VPWR sky130_fd_sc_hd__tapvpwrvgnd_1
XFILLER_26_97 VPWR VGND VPWR VGND sky130_ef_sc_hd__decap_12
XFILLER_26_53 VPWR VGND VPWR VGND sky130_ef_sc_hd__decap_12
XFILLER_13_167 VGND VGND VPWR VPWR sky130_fd_sc_hd__fill_1
XFILLER_9_149 VPWR VGND VPWR VGND sky130_ef_sc_hd__decap_12
XFILLER_9_105 VGND VGND VPWR VPWR sky130_fd_sc_hd__decap_6
XFILLER_3_57 VPWR VGND VPWR VGND sky130_ef_sc_hd__decap_12
XTAP_TAPCELL_ROW_14_151 VGND VPWR sky130_fd_sc_hd__tapvpwrvgnd_1
XTAP_TAPCELL_ROW_6_108 VGND VPWR sky130_fd_sc_hd__tapvpwrvgnd_1
XTAP_TAPCELL_ROW_28_232 VGND VPWR sky130_fd_sc_hd__tapvpwrvgnd_1
XFILLER_27_237 VPWR VGND VPWR VGND sky130_ef_sc_hd__decap_12
XTAP_TAPCELL_ROW_20_187 VGND VPWR sky130_fd_sc_hd__tapvpwrvgnd_1
XFILLER_12_77 VGND VGND VPWR VPWR sky130_fd_sc_hd__decap_6
XFILLER_17_281 VPWR VGND VPWR VGND sky130_ef_sc_hd__decap_12
XFILLER_32_251 VGND VGND VPWR VPWR sky130_fd_sc_hd__fill_1
XTAP_TAPCELL_ROW_25_213 VGND VPWR sky130_fd_sc_hd__tapvpwrvgnd_1
XFILLER_23_273 VGND VGND VPWR VPWR sky130_fd_sc_hd__decap_6
XPHY_EDGE_ROW_21_Right_21 VGND VGND VPWR VPWR sky130_fd_sc_hd__decap_3
XPHY_EDGE_ROW_12_Right_12 VGND VGND VPWR VPWR sky130_fd_sc_hd__decap_3
XPHY_EDGE_ROW_30_Right_30 VGND VGND VPWR VPWR sky130_fd_sc_hd__decap_3
X_061_ hold1/X _057_/X _060_/Y _064_/A VGND VGND VPWR VPWR _072_/D sky130_fd_sc_hd__o211a_1
XFILLER_14_251 VGND VGND VPWR VPWR sky130_fd_sc_hd__fill_1
XFILLER_0_69 VGND VGND VPWR VPWR sky130_fd_sc_hd__decap_3
XFILLER_2_133 VGND VGND VPWR VPWR sky130_fd_sc_hd__decap_6
XFILLER_2_177 VPWR VGND VPWR VGND sky130_ef_sc_hd__decap_12
XFILLER_20_265 VPWR VGND VPWR VGND sky130_ef_sc_hd__decap_12
XFILLER_20_221 VPWR VGND VPWR VGND sky130_ef_sc_hd__decap_12
X_044_ _062_/B _044_/B _064_/A VGND VGND VPWR VPWR _066_/D sky130_fd_sc_hd__and3b_1
XFILLER_28_321 VGND VGND VPWR VPWR sky130_fd_sc_hd__decap_8
XFILLER_18_65 VPWR VGND VPWR VGND sky130_ef_sc_hd__decap_12
XFILLER_7_225 VPWR VGND VPWR VGND sky130_ef_sc_hd__decap_12
XFILLER_20_77 VGND VGND VPWR VPWR sky130_fd_sc_hd__decap_6
XFILLER_31_305 VPWR VGND VPWR VGND sky130_ef_sc_hd__decap_12
XFILLER_3_261 VPWR VGND VPWR VGND sky130_ef_sc_hd__decap_12
XFILLER_25_165 VGND VGND VPWR VPWR sky130_fd_sc_hd__decap_3
XFILLER_15_55 VGND VGND VPWR VPWR sky130_fd_sc_hd__fill_1
XFILLER_13_305 VPWR VGND VPWR VGND sky130_ef_sc_hd__decap_12
Xstoplight_example_16 VGND VGND VPWR VPWR stoplight_example_16/HI uio_out[3] sky130_fd_sc_hd__conb_1
XPHY_EDGE_ROW_6_Right_6 VGND VGND VPWR VPWR sky130_fd_sc_hd__decap_3
XFILLER_31_113 VPWR VGND VPWR VGND sky130_ef_sc_hd__decap_12
XFILLER_16_165 VPWR VGND VPWR VGND sky130_ef_sc_hd__decap_12
XFILLER_16_121 VPWR VGND VPWR VGND sky130_ef_sc_hd__decap_12
XFILLER_0_253 VPWR VGND VPWR VGND sky130_ef_sc_hd__decap_12
XTAP_TAPCELL_ROW_17_171 VGND VPWR sky130_fd_sc_hd__tapvpwrvgnd_1
XFILLER_26_65 VPWR VGND VPWR VGND sky130_ef_sc_hd__decap_12
XFILLER_13_113 VPWR VGND VPWR VGND sky130_ef_sc_hd__decap_12
XTAP_TAPCELL_ROW_14_152 VGND VPWR sky130_fd_sc_hd__tapvpwrvgnd_1
XTAP_TAPCELL_ROW_3_90 VGND VPWR sky130_fd_sc_hd__tapvpwrvgnd_1
XFILLER_3_69 VPWR VGND VPWR VGND sky130_ef_sc_hd__decap_12
XTAP_TAPCELL_ROW_6_109 VGND VPWR sky130_fd_sc_hd__tapvpwrvgnd_1
XFILLER_27_249 VPWR VGND VPWR VGND sky130_ef_sc_hd__decap_12
XFILLER_27_205 VPWR VGND VPWR VGND sky130_ef_sc_hd__decap_12
XTAP_TAPCELL_ROW_20_188 VGND VPWR sky130_fd_sc_hd__tapvpwrvgnd_1
XFILLER_6_109 VPWR VGND VPWR VGND sky130_ef_sc_hd__decap_12
XTAP_TAPCELL_ROW_25_214 VGND VPWR sky130_fd_sc_hd__tapvpwrvgnd_1
XFILLER_17_293 VPWR VGND VPWR VGND sky130_ef_sc_hd__decap_12
X_060_ _062_/B _062_/C _062_/D VGND VGND VPWR VPWR _060_/Y sky130_fd_sc_hd__nand3_1
XFILLER_23_55 VGND VGND VPWR VPWR sky130_fd_sc_hd__fill_1
XFILLER_0_15 VPWR VGND VPWR VGND sky130_ef_sc_hd__decap_12
XFILLER_2_189 VGND VGND VPWR VPWR sky130_fd_sc_hd__decap_6
XFILLER_3_3 VPWR VGND VPWR VGND sky130_ef_sc_hd__decap_12
XFILLER_20_233 VPWR VGND VPWR VGND sky130_ef_sc_hd__decap_12
XFILLER_9_57 VPWR VGND VPWR VGND sky130_ef_sc_hd__decap_12
X_043_ _066_/Q hold5/A hold6/A VGND VGND VPWR VPWR _044_/B sky130_fd_sc_hd__or3_1
XFILLER_20_277 VPWR VGND VPWR VGND sky130_ef_sc_hd__decap_12
XFILLER_18_77 VGND VGND VPWR VPWR sky130_fd_sc_hd__decap_6
XFILLER_7_237 VPWR VGND VPWR VGND sky130_ef_sc_hd__decap_12
XFILLER_31_317 VPWR VGND VPWR VGND sky130_ef_sc_hd__decap_12
XFILLER_3_273 VGND VGND VPWR VPWR sky130_fd_sc_hd__decap_6
Xstoplight_example_17 VGND VGND VPWR VPWR stoplight_example_17/HI uio_out[4] sky130_fd_sc_hd__conb_1
XFILLER_31_55 VGND VGND VPWR VPWR sky130_fd_sc_hd__fill_1
XFILLER_25_199 VPWR VGND VPWR VGND sky130_ef_sc_hd__decap_12
XFILLER_25_111 VGND VGND VPWR VPWR sky130_fd_sc_hd__fill_1
XFILLER_16_133 VGND VGND VPWR VPWR sky130_fd_sc_hd__decap_6
XFILLER_13_317 VPWR VGND VPWR VGND sky130_ef_sc_hd__decap_12
XFILLER_0_265 VPWR VGND VPWR VGND sky130_ef_sc_hd__decap_12
XFILLER_31_125 VGND VGND VPWR VPWR sky130_fd_sc_hd__fill_2
XFILLER_16_177 VPWR VGND VPWR VGND sky130_ef_sc_hd__decap_12
XFILLER_8_321 VGND VGND VPWR VPWR sky130_fd_sc_hd__decap_8
XFILLER_26_77 VGND VGND VPWR VPWR sky130_fd_sc_hd__decap_6
XFILLER_13_169 VPWR VGND VPWR VGND sky130_ef_sc_hd__decap_12
XFILLER_13_125 VPWR VGND VPWR VGND sky130_ef_sc_hd__decap_12
XFILLER_10_309 VPWR VGND VPWR VGND sky130_ef_sc_hd__decap_12
XTAP_TAPCELL_ROW_14_153 VGND VPWR sky130_fd_sc_hd__tapvpwrvgnd_1
XFILLER_8_195 VGND VGND VPWR VPWR sky130_fd_sc_hd__fill_1
XFILLER_3_15 VPWR VGND VPWR VGND sky130_ef_sc_hd__decap_12
XFILLER_27_217 VGND VGND VPWR VPWR sky130_fd_sc_hd__decap_6
XPHY_EDGE_ROW_19_Left_53 VGND VGND VPWR VPWR sky130_fd_sc_hd__decap_3
XFILLER_10_139 VGND VGND VPWR VPWR sky130_fd_sc_hd__fill_1
XTAP_TAPCELL_ROW_3_91 VGND VPWR sky130_fd_sc_hd__tapvpwrvgnd_1
XTAP_TAPCELL_ROW_11_134 VGND VPWR sky130_fd_sc_hd__tapvpwrvgnd_1
XFILLER_32_253 VPWR VGND VPWR VGND sky130_ef_sc_hd__decap_12
XFILLER_24_209 VPWR VGND VPWR VGND sky130_ef_sc_hd__decap_12
XFILLER_17_261 VPWR VGND VPWR VGND sky130_ef_sc_hd__decap_12
XTAP_TAPCELL_ROW_25_215 VGND VPWR sky130_fd_sc_hd__tapvpwrvgnd_1
XFILLER_0_27 VGND VGND VPWR VPWR sky130_fd_sc_hd__fill_1
XPHY_EDGE_ROW_4_Left_38 VGND VGND VPWR VPWR sky130_fd_sc_hd__decap_3
XFILLER_29_3 VPWR VGND VPWR VGND sky130_ef_sc_hd__decap_12
XFILLER_14_253 VPWR VGND VPWR VGND sky130_ef_sc_hd__decap_12
XFILLER_9_69 VPWR VGND VPWR VGND sky130_ef_sc_hd__decap_12
XTAP_TAPCELL_ROW_0_70 VGND VPWR sky130_fd_sc_hd__tapvpwrvgnd_1
XTAP_TAPCELL_ROW_30_240 VGND VPWR sky130_fd_sc_hd__tapvpwrvgnd_1
XFILLER_28_301 VGND VGND VPWR VPWR sky130_fd_sc_hd__decap_6
XFILLER_20_289 VPWR VGND VPWR VGND sky130_ef_sc_hd__decap_12
XFILLER_20_245 VGND VGND VPWR VPWR sky130_fd_sc_hd__decap_6
XFILLER_11_223 VGND VGND VPWR VPWR sky130_fd_sc_hd__fill_1
X_042_ hold5/A hold6/A _066_/Q VGND VGND VPWR VPWR _046_/B sky130_fd_sc_hd__o21a_1
XFILLER_7_205 VPWR VGND VPWR VGND sky130_ef_sc_hd__decap_12
XFILLER_7_249 VPWR VGND VPWR VGND sky130_ef_sc_hd__decap_12
XFILLER_1_81 VPWR VGND VPWR VGND sky130_ef_sc_hd__decap_12
XFILLER_31_329 VGND VGND VPWR VPWR sky130_fd_sc_hd__decap_3
XFILLER_29_55 VGND VGND VPWR VPWR sky130_fd_sc_hd__fill_1
XFILLER_28_197 VPWR VGND VPWR VGND sky130_ef_sc_hd__decap_12
XFILLER_6_15 VPWR VGND VPWR VGND sky130_ef_sc_hd__decap_12
XPHY_EDGE_ROW_7_Left_41 VGND VGND VPWR VPWR sky130_fd_sc_hd__decap_3
XFILLER_22_329 VGND VGND VPWR VPWR sky130_fd_sc_hd__decap_3
XFILLER_22_307 VGND VGND VPWR VPWR sky130_fd_sc_hd__fill_1
Xstoplight_example_18 VGND VGND VPWR VPWR stoplight_example_18/HI uio_out[5] sky130_fd_sc_hd__conb_1
XPHY_EDGE_ROW_33_Left_67 VGND VGND VPWR VPWR sky130_fd_sc_hd__decap_3
XFILLER_15_57 VPWR VGND VPWR VGND sky130_ef_sc_hd__decap_12
XFILLER_13_329 VGND VGND VPWR VPWR sky130_fd_sc_hd__decap_3
XFILLER_0_277 VGND VGND VPWR VPWR sky130_fd_sc_hd__decap_3
XFILLER_16_189 VGND VGND VPWR VPWR sky130_fd_sc_hd__decap_6
XFILLER_11_3 VPWR VGND VPWR VGND sky130_ef_sc_hd__decap_12
XFILLER_29_281 VPWR VGND VPWR VGND sky130_ef_sc_hd__decap_12
XFILLER_21_181 VPWR VGND VPWR VGND sky130_ef_sc_hd__decap_12
XTAP_TAPCELL_ROW_14_154 VGND VPWR sky130_fd_sc_hd__tapvpwrvgnd_1
XFILLER_13_137 VPWR VGND VPWR VGND sky130_ef_sc_hd__decap_12
XFILLER_3_27 VPWR VGND VPWR VGND sky130_ef_sc_hd__decap_12
XFILLER_8_141 VPWR VGND VPWR VGND sky130_ef_sc_hd__decap_12
XTAP_TAPCELL_ROW_3_92 VGND VPWR sky130_fd_sc_hd__tapvpwrvgnd_1
XFILLER_26_251 VGND VGND VPWR VPWR sky130_fd_sc_hd__fill_1
XTAP_TAPCELL_ROW_11_135 VGND VPWR sky130_fd_sc_hd__tapvpwrvgnd_1
XFILLER_5_111 VGND VGND VPWR VPWR sky130_fd_sc_hd__fill_1
XFILLER_32_265 VPWR VGND VPWR VGND sky130_ef_sc_hd__decap_12
XFILLER_32_221 VPWR VGND VPWR VGND sky130_ef_sc_hd__decap_12
XPHY_EDGE_ROW_20_Left_54 VGND VGND VPWR VPWR sky130_fd_sc_hd__decap_3
XFILLER_17_273 VGND VGND VPWR VPWR sky130_fd_sc_hd__decap_6
XTAP_TAPCELL_ROW_33_260 VGND VPWR sky130_fd_sc_hd__tapvpwrvgnd_1
XFILLER_23_57 VPWR VGND VPWR VGND sky130_ef_sc_hd__decap_12
XFILLER_14_265 VPWR VGND VPWR VGND sky130_ef_sc_hd__decap_12
XFILLER_14_221 VPWR VGND VPWR VGND sky130_ef_sc_hd__decap_12
XFILLER_9_15 VPWR VGND VPWR VGND sky130_ef_sc_hd__decap_12
XTAP_TAPCELL_ROW_0_71 VGND VPWR sky130_fd_sc_hd__tapvpwrvgnd_1
XTAP_TAPCELL_ROW_30_241 VGND VPWR sky130_fd_sc_hd__tapvpwrvgnd_1
Xclkload0 _075_/CLK VGND VGND VPWR VPWR clkload0/X sky130_fd_sc_hd__clkbuf_4
X_041_ _066_/Q _068_/Q _038_/C _038_/D _033_/Y VGND VGND VPWR VPWR _064_/A sky130_fd_sc_hd__o41a_2
XFILLER_11_279 VGND VGND VPWR VPWR sky130_fd_sc_hd__fill_1
XFILLER_7_217 VGND VGND VPWR VPWR sky130_fd_sc_hd__decap_6
XFILLER_25_305 VPWR VGND VPWR VGND sky130_ef_sc_hd__decap_12
XFILLER_1_93 VPWR VGND VPWR VGND sky130_ef_sc_hd__decap_12
XFILLER_28_121 VGND VGND VPWR VPWR sky130_fd_sc_hd__decap_8
XFILLER_4_209 VPWR VGND VPWR VGND sky130_ef_sc_hd__decap_12
Xstoplight_example_19 VGND VGND VPWR VPWR stoplight_example_19/HI uio_out[6] sky130_fd_sc_hd__conb_1
XFILLER_6_27 VGND VGND VPWR VPWR sky130_fd_sc_hd__fill_1
XFILLER_31_57 VPWR VGND VPWR VGND sky130_ef_sc_hd__decap_12
XFILLER_25_157 VGND VGND VPWR VPWR sky130_fd_sc_hd__decap_8
XFILLER_25_113 VPWR VGND VPWR VGND sky130_ef_sc_hd__decap_12
XFILLER_15_69 VPWR VGND VPWR VGND sky130_ef_sc_hd__decap_12
XFILLER_0_201 VGND VGND VPWR VPWR sky130_fd_sc_hd__decap_8
XFILLER_31_105 VGND VGND VPWR VPWR sky130_fd_sc_hd__decap_6
XPHY_EDGE_ROW_28_Right_28 VGND VGND VPWR VPWR sky130_fd_sc_hd__decap_3
XPHY_EDGE_ROW_19_Right_19 VGND VGND VPWR VPWR sky130_fd_sc_hd__decap_3
XFILLER_8_301 VGND VGND VPWR VPWR sky130_fd_sc_hd__decap_6
XFILLER_0_223 VGND VGND VPWR VPWR sky130_fd_sc_hd__fill_1
XFILLER_7_81 VPWR VGND VPWR VGND sky130_ef_sc_hd__decap_12
XFILLER_29_293 VPWR VGND VPWR VGND sky130_ef_sc_hd__decap_12
XFILLER_21_193 VPWR VGND VPWR VGND sky130_ef_sc_hd__decap_12
XFILLER_13_149 VPWR VGND VPWR VGND sky130_ef_sc_hd__decap_12
XFILLER_13_105 VGND VGND VPWR VPWR sky130_fd_sc_hd__decap_6
XTAP_TAPCELL_ROW_8_120 VGND VPWR sky130_fd_sc_hd__tapvpwrvgnd_1
XFILLER_3_39 VPWR VGND VPWR VGND sky130_ef_sc_hd__decap_12
XTAP_TAPCELL_ROW_14_155 VGND VPWR sky130_fd_sc_hd__tapvpwrvgnd_1
XFILLER_8_197 VPWR VGND VPWR VGND sky130_ef_sc_hd__decap_12
XFILLER_8_153 VPWR VGND VPWR VGND sky130_ef_sc_hd__decap_12
XTAP_TAPCELL_ROW_3_93 VGND VPWR sky130_fd_sc_hd__tapvpwrvgnd_1
XFILLER_12_15 VPWR VGND VPWR VGND sky130_ef_sc_hd__decap_12
XFILLER_2_307 VGND VGND VPWR VPWR sky130_fd_sc_hd__fill_1
XFILLER_2_329 VGND VGND VPWR VPWR sky130_fd_sc_hd__decap_3
XTAP_TAPCELL_ROW_5_101 VGND VPWR sky130_fd_sc_hd__tapvpwrvgnd_1
XFILLER_32_277 VPWR VGND VPWR VGND sky130_ef_sc_hd__decap_12
XFILLER_32_233 VPWR VGND VPWR VGND sky130_ef_sc_hd__decap_12
XTAP_TAPCELL_ROW_11_136 VGND VPWR sky130_fd_sc_hd__tapvpwrvgnd_1
XFILLER_5_167 VGND VGND VPWR VPWR sky130_fd_sc_hd__fill_1
XTAP_TAPCELL_ROW_33_261 VGND VPWR sky130_fd_sc_hd__tapvpwrvgnd_1
XFILLER_23_69 VPWR VGND VPWR VGND sky130_ef_sc_hd__decap_12
XFILLER_14_277 VPWR VGND VPWR VGND sky130_ef_sc_hd__decap_12
XFILLER_14_233 VPWR VGND VPWR VGND sky130_ef_sc_hd__decap_12
XFILLER_9_27 VPWR VGND VPWR VGND sky130_ef_sc_hd__decap_12
XFILLER_0_29 VPWR VGND VPWR VGND sky130_ef_sc_hd__decap_12
XTAP_TAPCELL_ROW_30_242 VGND VPWR sky130_fd_sc_hd__tapvpwrvgnd_1
XFILLER_9_281 VPWR VGND VPWR VGND sky130_ef_sc_hd__decap_12
XFILLER_1_181 VPWR VGND VPWR VGND sky130_ef_sc_hd__decap_12
XTAP_TAPCELL_ROW_0_72 VGND VPWR sky130_fd_sc_hd__tapvpwrvgnd_1
X_040_ hold2/X input2/X hold6/A _065_/S VGND VGND VPWR VPWR hold3/A sky130_fd_sc_hd__a22o_1
XFILLER_11_225 VPWR VGND VPWR VGND sky130_ef_sc_hd__decap_12
XFILLER_1_3 VPWR VGND VPWR VGND sky130_ef_sc_hd__decap_12
XFILLER_25_317 VPWR VGND VPWR VGND sky130_ef_sc_hd__decap_12
XFILLER_6_251 VGND VGND VPWR VPWR sky130_fd_sc_hd__fill_1
XFILLER_29_57 VPWR VGND VPWR VGND sky130_ef_sc_hd__decap_12
XFILLER_20_15 VPWR VGND VPWR VGND sky130_ef_sc_hd__decap_12
XFILLER_22_309 VPWR VGND VPWR VGND sky130_ef_sc_hd__decap_12
XFILLER_19_111 VGND VGND VPWR VPWR sky130_fd_sc_hd__fill_1
XFILLER_25_169 VGND VGND VPWR VPWR sky130_fd_sc_hd__decap_4
XFILLER_25_125 VGND VGND VPWR VPWR sky130_fd_sc_hd__decap_6
XFILLER_15_15 VPWR VGND VPWR VGND sky130_ef_sc_hd__decap_12
XFILLER_31_69 VPWR VGND VPWR VGND sky130_ef_sc_hd__decap_12
XFILLER_22_139 VGND VGND VPWR VPWR sky130_fd_sc_hd__fill_1
XFILLER_7_93 VPWR VGND VPWR VGND sky130_ef_sc_hd__decap_12
XFILLER_21_161 VGND VGND VPWR VPWR sky130_fd_sc_hd__decap_6
XTAP_TAPCELL_ROW_8_121 VGND VPWR sky130_fd_sc_hd__tapvpwrvgnd_1
XFILLER_5_305 VPWR VGND VPWR VGND sky130_ef_sc_hd__decap_12
XFILLER_29_261 VPWR VGND VPWR VGND sky130_ef_sc_hd__decap_12
XFILLER_8_165 VPWR VGND VPWR VGND sky130_ef_sc_hd__decap_12
XFILLER_8_121 VPWR VGND VPWR VGND sky130_ef_sc_hd__decap_12
XTAP_TAPCELL_ROW_3_94 VGND VPWR sky130_fd_sc_hd__tapvpwrvgnd_1
XFILLER_26_253 VPWR VGND VPWR VGND sky130_ef_sc_hd__decap_12
XFILLER_18_209 VPWR VGND VPWR VGND sky130_ef_sc_hd__decap_12
XFILLER_12_27 VGND VGND VPWR VPWR sky130_fd_sc_hd__fill_1
XFILLER_10_109 VPWR VGND VPWR VGND sky130_ef_sc_hd__decap_12
XTAP_TAPCELL_ROW_5_102 VGND VPWR sky130_fd_sc_hd__tapvpwrvgnd_1
XFILLER_32_245 VGND VGND VPWR VPWR sky130_fd_sc_hd__decap_6
XTAP_TAPCELL_ROW_11_137 VGND VPWR sky130_fd_sc_hd__tapvpwrvgnd_1
XFILLER_5_113 VPWR VGND VPWR VGND sky130_ef_sc_hd__decap_12
XTAP_TAPCELL_ROW_33_262 VGND VPWR sky130_fd_sc_hd__tapvpwrvgnd_1
XFILLER_32_289 VPWR VGND VPWR VGND sky130_ef_sc_hd__decap_12
XFILLER_23_223 VGND VGND VPWR VPWR sky130_fd_sc_hd__fill_1
XFILLER_23_15 VPWR VGND VPWR VGND sky130_ef_sc_hd__decap_12
XFILLER_4_83 VGND VGND VPWR VPWR sky130_fd_sc_hd__fill_1
XFILLER_14_289 VPWR VGND VPWR VGND sky130_ef_sc_hd__decap_12
XFILLER_14_245 VGND VGND VPWR VPWR sky130_fd_sc_hd__decap_6
XFILLER_13_81 VPWR VGND VPWR VGND sky130_ef_sc_hd__decap_12
XFILLER_9_39 VPWR VGND VPWR VGND sky130_ef_sc_hd__decap_12
XTAP_TAPCELL_ROW_30_243 VGND VPWR sky130_fd_sc_hd__tapvpwrvgnd_1
XFILLER_9_293 VPWR VGND VPWR VGND sky130_ef_sc_hd__decap_12
XFILLER_1_193 VPWR VGND VPWR VGND sky130_ef_sc_hd__decap_12
XTAP_TAPCELL_ROW_0_73 VGND VPWR sky130_fd_sc_hd__tapvpwrvgnd_1
XFILLER_18_15 VPWR VGND VPWR VGND sky130_ef_sc_hd__decap_12
XFILLER_11_237 VPWR VGND VPWR VGND sky130_ef_sc_hd__decap_12
X_099_ hold6/A VGND VGND VPWR VPWR uo_out[1] sky130_fd_sc_hd__buf_2
XFILLER_27_3 VPWR VGND VPWR VGND sky130_ef_sc_hd__decap_12
XFILLER_29_69 VPWR VGND VPWR VGND sky130_ef_sc_hd__decap_12
XFILLER_28_156 VGND VGND VPWR VPWR sky130_fd_sc_hd__fill_1
XFILLER_20_27 VGND VGND VPWR VPWR sky130_fd_sc_hd__fill_1
XFILLER_1_51 VGND VGND VPWR VPWR sky130_fd_sc_hd__decap_4
XFILLER_19_167 VGND VGND VPWR VPWR sky130_fd_sc_hd__fill_1
XFILLER_16_329 VGND VGND VPWR VPWR sky130_fd_sc_hd__decap_3
XFILLER_16_307 VGND VGND VPWR VPWR sky130_fd_sc_hd__fill_1
XFILLER_6_29 VPWR VGND VPWR VGND sky130_ef_sc_hd__decap_12
XFILLER_30_321 VGND VGND VPWR VPWR sky130_fd_sc_hd__decap_8
XFILLER_15_27 VPWR VGND VPWR VGND sky130_ef_sc_hd__decap_12
XFILLER_31_15 VPWR VGND VPWR VGND sky130_ef_sc_hd__decap_12
XFILLER_12_321 VGND VGND VPWR VPWR sky130_fd_sc_hd__decap_8
XFILLER_0_225 VPWR VGND VPWR VGND sky130_ef_sc_hd__decap_12
XPHY_EDGE_ROW_1_Right_1 VGND VGND VPWR VPWR sky130_fd_sc_hd__decap_3
XFILLER_21_81 VPWR VGND VPWR VGND sky130_ef_sc_hd__decap_12
XFILLER_15_181 VPWR VGND VPWR VGND sky130_ef_sc_hd__decap_12
XFILLER_26_15 VPWR VGND VPWR VGND sky130_ef_sc_hd__decap_12
XFILLER_5_317 VPWR VGND VPWR VGND sky130_ef_sc_hd__decap_12
XFILLER_29_273 VGND VGND VPWR VPWR sky130_fd_sc_hd__decap_6
XFILLER_12_195 VGND VGND VPWR VPWR sky130_fd_sc_hd__fill_1
XTAP_TAPCELL_ROW_8_122 VGND VPWR sky130_fd_sc_hd__tapvpwrvgnd_1
XFILLER_8_177 VPWR VGND VPWR VGND sky130_ef_sc_hd__decap_12
XFILLER_8_133 VGND VGND VPWR VPWR sky130_fd_sc_hd__decap_6
XFILLER_2_309 VPWR VGND VPWR VGND sky130_ef_sc_hd__decap_12
XTAP_TAPCELL_ROW_5_103 VGND VPWR sky130_fd_sc_hd__tapvpwrvgnd_1
XTAP_TAPCELL_ROW_28_227 VGND VPWR sky130_fd_sc_hd__tapvpwrvgnd_1
XFILLER_26_265 VPWR VGND VPWR VGND sky130_ef_sc_hd__decap_12
XFILLER_26_221 VPWR VGND VPWR VGND sky130_ef_sc_hd__decap_12
XTAP_TAPCELL_ROW_11_138 VGND VPWR sky130_fd_sc_hd__tapvpwrvgnd_1
XFILLER_5_125 VPWR VGND VPWR VGND sky130_ef_sc_hd__decap_12
XFILLER_5_169 VPWR VGND VPWR VGND sky130_ef_sc_hd__decap_12
XTAP_TAPCELL_ROW_33_263 VGND VPWR sky130_fd_sc_hd__tapvpwrvgnd_1
XFILLER_23_279 VGND VGND VPWR VPWR sky130_fd_sc_hd__fill_1
XFILLER_23_27 VPWR VGND VPWR VGND sky130_ef_sc_hd__decap_12
XFILLER_2_139 VGND VGND VPWR VPWR sky130_fd_sc_hd__fill_1
XPHY_EDGE_ROW_24_Left_58 VGND VGND VPWR VPWR sky130_fd_sc_hd__decap_3
XFILLER_13_93 VPWR VGND VPWR VGND sky130_ef_sc_hd__decap_12
XFILLER_9_261 VPWR VGND VPWR VGND sky130_ef_sc_hd__decap_12
XTAP_TAPCELL_ROW_0_74 VGND VPWR sky130_fd_sc_hd__tapvpwrvgnd_1
XFILLER_1_161 VGND VGND VPWR VPWR sky130_fd_sc_hd__decap_6
XFILLER_18_27 VGND VGND VPWR VPWR sky130_fd_sc_hd__fill_1
XFILLER_11_249 VPWR VGND VPWR VGND sky130_ef_sc_hd__decap_12
XFILLER_11_205 VPWR VGND VPWR VGND sky130_ef_sc_hd__decap_12
X_098_ hold5/A VGND VGND VPWR VPWR uo_out[0] sky130_fd_sc_hd__buf_2
XFILLER_19_305 VPWR VGND VPWR VGND sky130_ef_sc_hd__decap_12
XFILLER_6_253 VPWR VGND VPWR VGND sky130_ef_sc_hd__decap_12
XFILLER_29_15 VPWR VGND VPWR VGND sky130_ef_sc_hd__decap_12
XFILLER_19_113 VPWR VGND VPWR VGND sky130_ef_sc_hd__decap_12
XFILLER_10_83 VGND VGND VPWR VPWR sky130_fd_sc_hd__fill_1
XFILLER_3_223 VGND VGND VPWR VPWR sky130_fd_sc_hd__fill_1
XPHY_EDGE_ROW_27_Left_61 VGND VGND VPWR VPWR sky130_fd_sc_hd__decap_3
XFILLER_25_105 VGND VGND VPWR VPWR sky130_fd_sc_hd__decap_6
XFILLER_19_81 VPWR VGND VPWR VGND sky130_ef_sc_hd__decap_12
XPHY_EDGE_ROW_11_Left_45 VGND VGND VPWR VPWR sky130_fd_sc_hd__decap_3
XFILLER_31_27 VPWR VGND VPWR VGND sky130_ef_sc_hd__decap_12
XFILLER_15_39 VPWR VGND VPWR VGND sky130_ef_sc_hd__decap_12
XFILLER_0_237 VPWR VGND VPWR VGND sky130_ef_sc_hd__decap_12
XFILLER_0_215 VGND VGND VPWR VPWR sky130_fd_sc_hd__decap_8
Xclkbuf_0_clk clk VGND VGND VPWR VPWR clkbuf_0_clk/X sky130_fd_sc_hd__clkbuf_16
XFILLER_21_93 VPWR VGND VPWR VGND sky130_ef_sc_hd__decap_12
XFILLER_15_193 VPWR VGND VPWR VGND sky130_ef_sc_hd__decap_12
XFILLER_30_141 VGND VGND VPWR VPWR sky130_fd_sc_hd__fill_2
XFILLER_26_27 VGND VGND VPWR VPWR sky130_fd_sc_hd__fill_1
XPHY_EDGE_ROW_24_Right_24 VGND VGND VPWR VPWR sky130_fd_sc_hd__decap_3
XPHY_EDGE_ROW_15_Right_15 VGND VGND VPWR VPWR sky130_fd_sc_hd__decap_3
XFILLER_7_51 VGND VGND VPWR VPWR sky130_fd_sc_hd__decap_4
XPHY_EDGE_ROW_33_Right_33 VGND VGND VPWR VPWR sky130_fd_sc_hd__decap_3
XFILLER_12_141 VPWR VGND VPWR VGND sky130_ef_sc_hd__decap_12
XFILLER_8_189 VGND VGND VPWR VPWR sky130_fd_sc_hd__decap_6
XFILLER_5_329 VGND VGND VPWR VPWR sky130_fd_sc_hd__decap_3
XFILLER_12_29 VPWR VGND VPWR VGND sky130_ef_sc_hd__decap_12
XTAP_TAPCELL_ROW_28_228 VGND VPWR sky130_fd_sc_hd__tapvpwrvgnd_1
XFILLER_26_277 VPWR VGND VPWR VGND sky130_ef_sc_hd__decap_12
XFILLER_26_233 VPWR VGND VPWR VGND sky130_ef_sc_hd__decap_12
XFILLER_5_137 VPWR VGND VPWR VGND sky130_ef_sc_hd__decap_12
XTAP_TAPCELL_ROW_5_104 VGND VPWR sky130_fd_sc_hd__tapvpwrvgnd_1
XFILLER_27_81 VPWR VGND VPWR VGND sky130_ef_sc_hd__decap_12
XFILLER_4_41 VPWR VGND VPWR VGND sky130_ef_sc_hd__decap_12
XFILLER_4_85 VPWR VGND VPWR VGND sky130_ef_sc_hd__decap_12
XTAP_TAPCELL_ROW_33_264 VGND VPWR sky130_fd_sc_hd__tapvpwrvgnd_1
XFILLER_23_225 VPWR VGND VPWR VGND sky130_ef_sc_hd__decap_12
XFILLER_23_39 VPWR VGND VPWR VGND sky130_ef_sc_hd__decap_12
XTAP_TAPCELL_ROW_0_75 VGND VPWR sky130_fd_sc_hd__tapvpwrvgnd_1
XFILLER_11_217 VGND VGND VPWR VPWR sky130_fd_sc_hd__decap_6
XFILLER_9_273 VGND VGND VPWR VPWR sky130_fd_sc_hd__decap_6
XFILLER_19_317 VPWR VGND VPWR VGND sky130_ef_sc_hd__decap_12
XFILLER_20_29 VPWR VGND VPWR VGND sky130_ef_sc_hd__decap_12
XFILLER_6_221 VPWR VGND VPWR VGND sky130_ef_sc_hd__decap_12
XFILLER_6_265 VPWR VGND VPWR VGND sky130_ef_sc_hd__decap_12
XFILLER_29_27 VPWR VGND VPWR VGND sky130_ef_sc_hd__decap_12
XFILLER_16_309 VPWR VGND VPWR VGND sky130_ef_sc_hd__decap_12
XFILLER_32_3 VPWR VGND VPWR VGND sky130_ef_sc_hd__decap_12
XFILLER_30_301 VGND VGND VPWR VPWR sky130_fd_sc_hd__decap_6
XFILLER_19_169 VPWR VGND VPWR VGND sky130_ef_sc_hd__decap_12
XFILLER_19_125 VPWR VGND VPWR VGND sky130_ef_sc_hd__decap_12
XFILLER_19_93 VPWR VGND VPWR VGND sky130_ef_sc_hd__decap_12
XFILLER_3_279 VGND VGND VPWR VPWR sky130_fd_sc_hd__fill_1
XFILLER_33_194 VGND VGND VPWR VPWR sky130_fd_sc_hd__fill_2
XFILLER_31_39 VPWR VGND VPWR VGND sky130_ef_sc_hd__decap_12
XFILLER_0_249 VGND VGND VPWR VPWR sky130_fd_sc_hd__decap_3
XFILLER_24_194 VGND VGND VPWR VPWR sky130_fd_sc_hd__fill_2
XFILLER_24_161 VPWR VGND VPWR VGND sky130_ef_sc_hd__decap_12