*SPEF "ieee 1481-1999"
*DESIGN "stoplight_example"
*DATE "15:32:25 Thursday January 22, 2026"
*VENDOR "The OpenROAD Project"
*PROGRAM "OpenROAD"
*VERSION "edf00dff99f6c40d67a30c0e22a8191c5d2ed9d6"
*DESIGN_FLOW "NAME_SCOPE LOCAL" "PIN_CAP NONE"
*DIVIDER /
*DELIMITER :
*BUS_DELIMITER []
*T_UNIT 1 NS
*C_UNIT 1 PF
*R_UNIT 1 OHM
*L_UNIT 1 HENRY

*NAME_MAP
*3 clk
*4 ena
*5 rst_n
*6 ui_in[0]
*7 ui_in[1]
*8 ui_in[2]
*9 ui_in[3]
*10 ui_in[4]
*11 ui_in[5]
*12 ui_in[6]
*13 ui_in[7]
*14 uio_in[0]
*15 uio_in[1]
*16 uio_in[2]
*17 uio_in[3]
*18 uio_in[4]
*19 uio_in[5]
*20 uio_in[6]
*21 uio_in[7]
*22 net5
*23 net6
*24 net7
*25 net8
*26 net9
*27 net10
*28 net11
*29 net12
*30 net13
*31 net14
*32 net15
*33 net16
*34 net17
*35 net18
*36 net19
*37 net20
*38 uo_out[0]
*39 uo_out[1]
*40 uo_out[2]
*41 net21
*42 net22
*43 net23
*44 net24
*45 net25
*46 _000_
*47 _001_
*48 _002_
*49 _003_
*50 _004_
*51 _005_
*52 _006_
*53 _007_
*54 _008_
*55 _009_
*56 _010_
*57 _011_
*58 _012_
*59 _013_
*60 _014_
*61 _015_
*62 _016_
*63 _017_
*64 _018_
*65 _019_
*66 _020_
*67 _021_
*68 _022_
*69 _023_
*70 _024_
*71 _025_
*72 _026_
*73 _027_
*74 _028_
*75 _029_
*76 _030_
*77 _031_
*78 _032_
*79 clknet_0_clk
*80 clknet_1_0__leaf_clk
*81 clknet_1_1__leaf_clk
*82 net1
*83 net2
*84 net26
*85 net27
*86 net28
*87 net29
*88 net3
*89 net30
*90 net31
*91 net32
*92 net4
*93 top_inst\.count_clr
*94 top_inst\.red
*95 top_inst\.src1\.count_q\[0\]
*96 top_inst\.src1\.count_q\[1\]
*97 top_inst\.src1\.count_q\[2\]
*98 top_inst\.src1\.count_q\[3\]
*99 top_inst\.src1\.count_q\[4\]
*100 top_inst\.src1\.count_q\[5\]
*101 top_inst\.src1\.count_q\[6\]
*102 top_inst\.src1\.count_q\[7\]
*103 top_inst\.src2\.yellow
*104 FILLER_0_108
*105 FILLER_0_113
*106 FILLER_0_124
*107 FILLER_0_131
*108 FILLER_0_138
*109 FILLER_0_141
*110 FILLER_0_145
*111 FILLER_0_15
*112 FILLER_0_152
*113 FILLER_0_159
*114 FILLER_0_166
*115 FILLER_0_169
*116 FILLER_0_180
*117 FILLER_0_187
*118 FILLER_0_194
*119 FILLER_0_197
*120 FILLER_0_201
*121 FILLER_0_209
*122 FILLER_0_215
*123 FILLER_0_223
*124 FILLER_0_225
*125 FILLER_0_237
*126 FILLER_0_249
*127 FILLER_0_253
*128 FILLER_0_265
*129 FILLER_0_27
*130 FILLER_0_277
*131 FILLER_0_281
*132 FILLER_0_29
*133 FILLER_0_293
*134 FILLER_0_3
*135 FILLER_0_305
*136 FILLER_0_309
*137 FILLER_0_321
*138 FILLER_0_329
*139 FILLER_0_41
*140 FILLER_0_53
*141 FILLER_0_57
*142 FILLER_0_69
*143 FILLER_0_75
*144 FILLER_0_83
*145 FILLER_0_85
*146 FILLER_0_96
*147 FILLER_10_109
*148 FILLER_10_121
*149 FILLER_10_133
*150 FILLER_10_139
*151 FILLER_10_141
*152 FILLER_10_15
*153 FILLER_10_153
*154 FILLER_10_165
*155 FILLER_10_177
*156 FILLER_10_189
*157 FILLER_10_195
*158 FILLER_10_197
*159 FILLER_10_209
*160 FILLER_10_221
*161 FILLER_10_233
*162 FILLER_10_245
*163 FILLER_10_251
*164 FILLER_10_253
*165 FILLER_10_265
*166 FILLER_10_27
*167 FILLER_10_277
*168 FILLER_10_289
*169 FILLER_10_29
*170 FILLER_10_3
*171 FILLER_10_301
*172 FILLER_10_307
*173 FILLER_10_309
*174 FILLER_10_321
*175 FILLER_10_329
*176 FILLER_10_41
*177 FILLER_10_53
*178 FILLER_10_65
*179 FILLER_10_77
*180 FILLER_10_83
*181 FILLER_10_85
*182 FILLER_10_97
*183 FILLER_11_105
*184 FILLER_11_111
*185 FILLER_11_113
*186 FILLER_11_125
*187 FILLER_11_137
*188 FILLER_11_149
*189 FILLER_11_15
*190 FILLER_11_161
*191 FILLER_11_167
*192 FILLER_11_169
*193 FILLER_11_181
*194 FILLER_11_193
*195 FILLER_11_205
*196 FILLER_11_217
*197 FILLER_11_223
*198 FILLER_11_225
*199 FILLER_11_237
*200 FILLER_11_249
*201 FILLER_11_261
*202 FILLER_11_27
*203 FILLER_11_273
*204 FILLER_11_279
*205 FILLER_11_281
*206 FILLER_11_293
*207 FILLER_11_3
*208 FILLER_11_305
*209 FILLER_11_317
*210 FILLER_11_329
*211 FILLER_11_39
*212 FILLER_11_51
*213 FILLER_11_55
*214 FILLER_11_57
*215 FILLER_11_69
*216 FILLER_11_81
*217 FILLER_11_93
*218 FILLER_12_109
*219 FILLER_12_121
*220 FILLER_12_133
*221 FILLER_12_139
*222 FILLER_12_141
*223 FILLER_12_15
*224 FILLER_12_153
*225 FILLER_12_165
*226 FILLER_12_177
*227 FILLER_12_189
*228 FILLER_12_195
*229 FILLER_12_197
*230 FILLER_12_209
*231 FILLER_12_221
*232 FILLER_12_233
*233 FILLER_12_245
*234 FILLER_12_251
*235 FILLER_12_253
*236 FILLER_12_265
*237 FILLER_12_27
*238 FILLER_12_277
*239 FILLER_12_289
*240 FILLER_12_29
*241 FILLER_12_3
*242 FILLER_12_301
*243 FILLER_12_307
*244 FILLER_12_309
*245 FILLER_12_321
*246 FILLER_12_329
*247 FILLER_12_41
*248 FILLER_12_53
*249 FILLER_12_65
*250 FILLER_12_77
*251 FILLER_12_83
*252 FILLER_12_85
*253 FILLER_12_97
*254 FILLER_13_105
*255 FILLER_13_111
*256 FILLER_13_113
*257 FILLER_13_125
*258 FILLER_13_137
*259 FILLER_13_149
*260 FILLER_13_15
*261 FILLER_13_161
*262 FILLER_13_167
*263 FILLER_13_169
*264 FILLER_13_181
*265 FILLER_13_193
*266 FILLER_13_205
*267 FILLER_13_217
*268 FILLER_13_223
*269 FILLER_13_225
*270 FILLER_13_237
*271 FILLER_13_249
*272 FILLER_13_261
*273 FILLER_13_27
*274 FILLER_13_273
*275 FILLER_13_279
*276 FILLER_13_281
*277 FILLER_13_293
*278 FILLER_13_3
*279 FILLER_13_305
*280 FILLER_13_317
*281 FILLER_13_329
*282 FILLER_13_39
*283 FILLER_13_51
*284 FILLER_13_55
*285 FILLER_13_57
*286 FILLER_13_69
*287 FILLER_13_81
*288 FILLER_13_93
*289 FILLER_14_109
*290 FILLER_14_121
*291 FILLER_14_133
*292 FILLER_14_139
*293 FILLER_14_141
*294 FILLER_14_15
*295 FILLER_14_153
*296 FILLER_14_165
*297 FILLER_14_177
*298 FILLER_14_189
*299 FILLER_14_195
*300 FILLER_14_197
*301 FILLER_14_209
*302 FILLER_14_221
*303 FILLER_14_233
*304 FILLER_14_245
*305 FILLER_14_251
*306 FILLER_14_253
*307 FILLER_14_265
*308 FILLER_14_27
*309 FILLER_14_277
*310 FILLER_14_289
*311 FILLER_14_29
*312 FILLER_14_3
*313 FILLER_14_301
*314 FILLER_14_307
*315 FILLER_14_309
*316 FILLER_14_321
*317 FILLER_14_329
*318 FILLER_14_41
*319 FILLER_14_53
*320 FILLER_14_65
*321 FILLER_14_77
*322 FILLER_14_83
*323 FILLER_14_85
*324 FILLER_14_97
*325 FILLER_15_105
*326 FILLER_15_111
*327 FILLER_15_113
*328 FILLER_15_125
*329 FILLER_15_137
*330 FILLER_15_149
*331 FILLER_15_15
*332 FILLER_15_161
*333 FILLER_15_167
*334 FILLER_15_169
*335 FILLER_15_181
*336 FILLER_15_193
*337 FILLER_15_205
*338 FILLER_15_217
*339 FILLER_15_223
*340 FILLER_15_225
*341 FILLER_15_237
*342 FILLER_15_249
*343 FILLER_15_261
*344 FILLER_15_27
*345 FILLER_15_273
*346 FILLER_15_279
*347 FILLER_15_281
*348 FILLER_15_293
*349 FILLER_15_3
*350 FILLER_15_305
*351 FILLER_15_317
*352 FILLER_15_329
*353 FILLER_15_39
*354 FILLER_15_51
*355 FILLER_15_55
*356 FILLER_15_57
*357 FILLER_15_69
*358 FILLER_15_81
*359 FILLER_15_93
*360 FILLER_16_109
*361 FILLER_16_121
*362 FILLER_16_133
*363 FILLER_16_139
*364 FILLER_16_141
*365 FILLER_16_15
*366 FILLER_16_153
*367 FILLER_16_165
*368 FILLER_16_177
*369 FILLER_16_189
*370 FILLER_16_195
*371 FILLER_16_197
*372 FILLER_16_209
*373 FILLER_16_221
*374 FILLER_16_233
*375 FILLER_16_245
*376 FILLER_16_251
*377 FILLER_16_253
*378 FILLER_16_265
*379 FILLER_16_27
*380 FILLER_16_277
*381 FILLER_16_289
*382 FILLER_16_29
*383 FILLER_16_3
*384 FILLER_16_301
*385 FILLER_16_307
*386 FILLER_16_309
*387 FILLER_16_321
*388 FILLER_16_329
*389 FILLER_16_41
*390 FILLER_16_53
*391 FILLER_16_65
*392 FILLER_16_77
*393 FILLER_16_83
*394 FILLER_16_85
*395 FILLER_16_97
*396 FILLER_17_105
*397 FILLER_17_111
*398 FILLER_17_113
*399 FILLER_17_125
*400 FILLER_17_137
*401 FILLER_17_149
*402 FILLER_17_15
*403 FILLER_17_161
*404 FILLER_17_167
*405 FILLER_17_169
*406 FILLER_17_181
*407 FILLER_17_193
*408 FILLER_17_205
*409 FILLER_17_217
*410 FILLER_17_223
*411 FILLER_17_225
*412 FILLER_17_237
*413 FILLER_17_249
*414 FILLER_17_261
*415 FILLER_17_27
*416 FILLER_17_273
*417 FILLER_17_279
*418 FILLER_17_281
*419 FILLER_17_293
*420 FILLER_17_3
*421 FILLER_17_305
*422 FILLER_17_317
*423 FILLER_17_329
*424 FILLER_17_39
*425 FILLER_17_51
*426 FILLER_17_55
*427 FILLER_17_57
*428 FILLER_17_69
*429 FILLER_17_81
*430 FILLER_17_93
*431 FILLER_18_109
*432 FILLER_18_121
*433 FILLER_18_133
*434 FILLER_18_139
*435 FILLER_18_141
*436 FILLER_18_15
*437 FILLER_18_153
*438 FILLER_18_165
*439 FILLER_18_177
*440 FILLER_18_189
*441 FILLER_18_195
*442 FILLER_18_197
*443 FILLER_18_209
*444 FILLER_18_221
*445 FILLER_18_233
*446 FILLER_18_245
*447 FILLER_18_251
*448 FILLER_18_253
*449 FILLER_18_265
*450 FILLER_18_27
*451 FILLER_18_277
*452 FILLER_18_289
*453 FILLER_18_29
*454 FILLER_18_3
*455 FILLER_18_301
*456 FILLER_18_307
*457 FILLER_18_309
*458 FILLER_18_321
*459 FILLER_18_329
*460 FILLER_18_41
*461 FILLER_18_53
*462 FILLER_18_65
*463 FILLER_18_77
*464 FILLER_18_83
*465 FILLER_18_85
*466 FILLER_18_97
*467 FILLER_19_105
*468 FILLER_19_111
*469 FILLER_19_113
*470 FILLER_19_125
*471 FILLER_19_137
*472 FILLER_19_149
*473 FILLER_19_15
*474 FILLER_19_161
*475 FILLER_19_167
*476 FILLER_19_169
*477 FILLER_19_181
*478 FILLER_19_193
*479 FILLER_19_205
*480 FILLER_19_217
*481 FILLER_19_223
*482 FILLER_19_225
*483 FILLER_19_237
*484 FILLER_19_249
*485 FILLER_19_261
*486 FILLER_19_27
*487 FILLER_19_273
*488 FILLER_19_279
*489 FILLER_19_281
*490 FILLER_19_293
*491 FILLER_19_3
*492 FILLER_19_305
*493 FILLER_19_317
*494 FILLER_19_329
*495 FILLER_19_39
*496 FILLER_19_51
*497 FILLER_19_55
*498 FILLER_19_57
*499 FILLER_19_69
*500 FILLER_19_81
*501 FILLER_19_93
*502 FILLER_1_105
*503 FILLER_1_111
*504 FILLER_1_113
*505 FILLER_1_125
*506 FILLER_1_137
*507 FILLER_1_149
*508 FILLER_1_15
*509 FILLER_1_161
*510 FILLER_1_167
*511 FILLER_1_169
*512 FILLER_1_181
*513 FILLER_1_193
*514 FILLER_1_205
*515 FILLER_1_217
*516 FILLER_1_223
*517 FILLER_1_225
*518 FILLER_1_237
*519 FILLER_1_249
*520 FILLER_1_261
*521 FILLER_1_27
*522 FILLER_1_273
*523 FILLER_1_279
*524 FILLER_1_281
*525 FILLER_1_293
*526 FILLER_1_3
*527 FILLER_1_305
*528 FILLER_1_317
*529 FILLER_1_329
*530 FILLER_1_39
*531 FILLER_1_51
*532 FILLER_1_55
*533 FILLER_1_57
*534 FILLER_1_69
*535 FILLER_1_81
*536 FILLER_1_93
*537 FILLER_20_109
*538 FILLER_20_121
*539 FILLER_20_133
*540 FILLER_20_139
*541 FILLER_20_141
*542 FILLER_20_15
*543 FILLER_20_153
*544 FILLER_20_165
*545 FILLER_20_177
*546 FILLER_20_189
*547 FILLER_20_195
*548 FILLER_20_197
*549 FILLER_20_209
*550 FILLER_20_221
*551 FILLER_20_233
*552 FILLER_20_245
*553 FILLER_20_251
*554 FILLER_20_253
*555 FILLER_20_265
*556 FILLER_20_27
*557 FILLER_20_277
*558 FILLER_20_289
*559 FILLER_20_29
*560 FILLER_20_3
*561 FILLER_20_301
*562 FILLER_20_307
*563 FILLER_20_309
*564 FILLER_20_321
*565 FILLER_20_329
*566 FILLER_20_41
*567 FILLER_20_53
*568 FILLER_20_65
*569 FILLER_20_77
*570 FILLER_20_83
*571 FILLER_20_85
*572 FILLER_20_97
*573 FILLER_21_105
*574 FILLER_21_111
*575 FILLER_21_113
*576 FILLER_21_125
*577 FILLER_21_137
*578 FILLER_21_149
*579 FILLER_21_15
*580 FILLER_21_161
*581 FILLER_21_167
*582 FILLER_21_169
*583 FILLER_21_181
*584 FILLER_21_193
*585 FILLER_21_205
*586 FILLER_21_217
*587 FILLER_21_223
*588 FILLER_21_225
*589 FILLER_21_237
*590 FILLER_21_249
*591 FILLER_21_261
*592 FILLER_21_27
*593 FILLER_21_273
*594 FILLER_21_279
*595 FILLER_21_281
*596 FILLER_21_293
*597 FILLER_21_3
*598 FILLER_21_305
*599 FILLER_21_317
*600 FILLER_21_329
*601 FILLER_21_39
*602 FILLER_21_51
*603 FILLER_21_55
*604 FILLER_21_57
*605 FILLER_21_69
*606 FILLER_21_81
*607 FILLER_21_93
*608 FILLER_22_109
*609 FILLER_22_121
*610 FILLER_22_133
*611 FILLER_22_139
*612 FILLER_22_141
*613 FILLER_22_15
*614 FILLER_22_153
*615 FILLER_22_165
*616 FILLER_22_177
*617 FILLER_22_189
*618 FILLER_22_195
*619 FILLER_22_197
*620 FILLER_22_209
*621 FILLER_22_221
*622 FILLER_22_233
*623 FILLER_22_245
*624 FILLER_22_251
*625 FILLER_22_253
*626 FILLER_22_265
*627 FILLER_22_27
*628 FILLER_22_277
*629 FILLER_22_289
*630 FILLER_22_29
*631 FILLER_22_3
*632 FILLER_22_301
*633 FILLER_22_307
*634 FILLER_22_309
*635 FILLER_22_321
*636 FILLER_22_329
*637 FILLER_22_41
*638 FILLER_22_53
*639 FILLER_22_65
*640 FILLER_22_77
*641 FILLER_22_83
*642 FILLER_22_85
*643 FILLER_22_97
*644 FILLER_23_105
*645 FILLER_23_111
*646 FILLER_23_113
*647 FILLER_23_125
*648 FILLER_23_137
*649 FILLER_23_149
*650 FILLER_23_15
*651 FILLER_23_161
*652 FILLER_23_167
*653 FILLER_23_169
*654 FILLER_23_181
*655 FILLER_23_193
*656 FILLER_23_205
*657 FILLER_23_217
*658 FILLER_23_223
*659 FILLER_23_225
*660 FILLER_23_237
*661 FILLER_23_249
*662 FILLER_23_261
*663 FILLER_23_27
*664 FILLER_23_273
*665 FILLER_23_279
*666 FILLER_23_281
*667 FILLER_23_293
*668 FILLER_23_3
*669 FILLER_23_305
*670 FILLER_23_317
*671 FILLER_23_329
*672 FILLER_23_39
*673 FILLER_23_51
*674 FILLER_23_55
*675 FILLER_23_57
*676 FILLER_23_69
*677 FILLER_23_81
*678 FILLER_23_93
*679 FILLER_24_109
*680 FILLER_24_121
*681 FILLER_24_133
*682 FILLER_24_139
*683 FILLER_24_15
*684 FILLER_24_161
*685 FILLER_24_173
*686 FILLER_24_186
*687 FILLER_24_194
*688 FILLER_24_197
*689 FILLER_24_209
*690 FILLER_24_221
*691 FILLER_24_233
*692 FILLER_24_245
*693 FILLER_24_251
*694 FILLER_24_253
*695 FILLER_24_265
*696 FILLER_24_27
*697 FILLER_24_277
*698 FILLER_24_289
*699 FILLER_24_29
*700 FILLER_24_3
*701 FILLER_24_301
*702 FILLER_24_307
*703 FILLER_24_309
*704 FILLER_24_321
*705 FILLER_24_329
*706 FILLER_24_41
*707 FILLER_24_53
*708 FILLER_24_65
*709 FILLER_24_77
*710 FILLER_24_83
*711 FILLER_24_85
*712 FILLER_24_97
*713 FILLER_25_105
*714 FILLER_25_111
*715 FILLER_25_113
*716 FILLER_25_125
*717 FILLER_25_131
*718 FILLER_25_15
*719 FILLER_25_157
*720 FILLER_25_165
*721 FILLER_25_169
*722 FILLER_25_199
*723 FILLER_25_211
*724 FILLER_25_223
*725 FILLER_25_225
*726 FILLER_25_237
*727 FILLER_25_249
*728 FILLER_25_261
*729 FILLER_25_27
*730 FILLER_25_273
*731 FILLER_25_279
*732 FILLER_25_281
*733 FILLER_25_293
*734 FILLER_25_3
*735 FILLER_25_305
*736 FILLER_25_317
*737 FILLER_25_39
*738 FILLER_25_51
*739 FILLER_25_55
*740 FILLER_25_57
*741 FILLER_25_69
*742 FILLER_25_81
*743 FILLER_25_93
*744 FILLER_26_109
*745 FILLER_26_121
*746 FILLER_26_127
*747 FILLER_26_146
*748 FILLER_26_15
*749 FILLER_26_168
*750 FILLER_26_187
*751 FILLER_26_195
*752 FILLER_26_197
*753 FILLER_26_209
*754 FILLER_26_221
*755 FILLER_26_233
*756 FILLER_26_245
*757 FILLER_26_251
*758 FILLER_26_253
*759 FILLER_26_265
*760 FILLER_26_27
*761 FILLER_26_277
*762 FILLER_26_289
*763 FILLER_26_29
*764 FILLER_26_3
*765 FILLER_26_301
*766 FILLER_26_307
*767 FILLER_26_309
*768 FILLER_26_321
*769 FILLER_26_329
*770 FILLER_26_41
*771 FILLER_26_53
*772 FILLER_26_65
*773 FILLER_26_77
*774 FILLER_26_83
*775 FILLER_26_85
*776 FILLER_26_97
*777 FILLER_27_105
*778 FILLER_27_111
*779 FILLER_27_113
*780 FILLER_27_125
*781 FILLER_27_15
*782 FILLER_27_160
*783 FILLER_27_164
*784 FILLER_27_169
*785 FILLER_27_205
*786 FILLER_27_217
*787 FILLER_27_223
*788 FILLER_27_225
*789 FILLER_27_237
*790 FILLER_27_249
*791 FILLER_27_261
*792 FILLER_27_27
*793 FILLER_27_273
*794 FILLER_27_279
*795 FILLER_27_281
*796 FILLER_27_293
*797 FILLER_27_3
*798 FILLER_27_305
*799 FILLER_27_317
*800 FILLER_27_329
*801 FILLER_27_39
*802 FILLER_27_51
*803 FILLER_27_55
*804 FILLER_27_57
*805 FILLER_27_69
*806 FILLER_27_81
*807 FILLER_27_93
*808 FILLER_28_109
*809 FILLER_28_121
*810 FILLER_28_129
*811 FILLER_28_139
*812 FILLER_28_148
*813 FILLER_28_15
*814 FILLER_28_156
*815 FILLER_28_197
*816 FILLER_28_209
*817 FILLER_28_221
*818 FILLER_28_233
*819 FILLER_28_245
*820 FILLER_28_251
*821 FILLER_28_253
*822 FILLER_28_265
*823 FILLER_28_27
*824 FILLER_28_277
*825 FILLER_28_289
*826 FILLER_28_29
*827 FILLER_28_3
*828 FILLER_28_301
*829 FILLER_28_307
*830 FILLER_28_309
*831 FILLER_28_321
*832 FILLER_28_329
*833 FILLER_28_41
*834 FILLER_28_53
*835 FILLER_28_65
*836 FILLER_28_77
*837 FILLER_28_83
*838 FILLER_28_85
*839 FILLER_28_97
*840 FILLER_29_105
*841 FILLER_29_111
*842 FILLER_29_113
*843 FILLER_29_125
*844 FILLER_29_131
*845 FILLER_29_15
*846 FILLER_29_164
*847 FILLER_29_182
*848 FILLER_29_223
*849 FILLER_29_225
*850 FILLER_29_237
*851 FILLER_29_249
*852 FILLER_29_261
*853 FILLER_29_27
*854 FILLER_29_273
*855 FILLER_29_279
*856 FILLER_29_281
*857 FILLER_29_293
*858 FILLER_29_3
*859 FILLER_29_305
*860 FILLER_29_317
*861 FILLER_29_329
*862 FILLER_29_39
*863 FILLER_29_51
*864 FILLER_29_55
*865 FILLER_29_57
*866 FILLER_29_69
*867 FILLER_29_81
*868 FILLER_29_93
*869 FILLER_2_109
*870 FILLER_2_121
*871 FILLER_2_133
*872 FILLER_2_139
*873 FILLER_2_141
*874 FILLER_2_15
*875 FILLER_2_153
*876 FILLER_2_165
*877 FILLER_2_177
*878 FILLER_2_189
*879 FILLER_2_195
*880 FILLER_2_197
*881 FILLER_2_209
*882 FILLER_2_221
*883 FILLER_2_233
*884 FILLER_2_245
*885 FILLER_2_251
*886 FILLER_2_253
*887 FILLER_2_265
*888 FILLER_2_27
*889 FILLER_2_277
*890 FILLER_2_289
*891 FILLER_2_29
*892 FILLER_2_3
*893 FILLER_2_301
*894 FILLER_2_307
*895 FILLER_2_309
*896 FILLER_2_321
*897 FILLER_2_329
*898 FILLER_2_41
*899 FILLER_2_53
*900 FILLER_2_65
*901 FILLER_2_77
*902 FILLER_2_83
*903 FILLER_2_85
*904 FILLER_2_97
*905 FILLER_30_109
*906 FILLER_30_121
*907 FILLER_30_129
*908 FILLER_30_138
*909 FILLER_30_141
*910 FILLER_30_149
*911 FILLER_30_15
*912 FILLER_30_153
*913 FILLER_30_197
*914 FILLER_30_209
*915 FILLER_30_221
*916 FILLER_30_233
*917 FILLER_30_245
*918 FILLER_30_251
*919 FILLER_30_253
*920 FILLER_30_265
*921 FILLER_30_27
*922 FILLER_30_277
*923 FILLER_30_289
*924 FILLER_30_29
*925 FILLER_30_3
*926 FILLER_30_301
*927 FILLER_30_307
*928 FILLER_30_309
*929 FILLER_30_321
*930 FILLER_30_329
*931 FILLER_30_41
*932 FILLER_30_53
*933 FILLER_30_65
*934 FILLER_30_77
*935 FILLER_30_83
*936 FILLER_30_85
*937 FILLER_30_97
*938 FILLER_31_105
*939 FILLER_31_111
*940 FILLER_31_113
*941 FILLER_31_125
*942 FILLER_31_15
*943 FILLER_31_152
*944 FILLER_31_204
*945 FILLER_31_216
*946 FILLER_31_225
*947 FILLER_31_237
*948 FILLER_31_249
*949 FILLER_31_261
*950 FILLER_31_27
*951 FILLER_31_273
*952 FILLER_31_279
*953 FILLER_31_281
*954 FILLER_31_293
*955 FILLER_31_3
*956 FILLER_31_305
*957 FILLER_31_317
*958 FILLER_31_329
*959 FILLER_31_39
*960 FILLER_31_51
*961 FILLER_31_55
*962 FILLER_31_57
*963 FILLER_31_69
*964 FILLER_31_81
*965 FILLER_31_93
*966 FILLER_32_109
*967 FILLER_32_121
*968 FILLER_32_133
*969 FILLER_32_139
*970 FILLER_32_15
*971 FILLER_32_161
*972 FILLER_32_192
*973 FILLER_32_197
*974 FILLER_32_209
*975 FILLER_32_221
*976 FILLER_32_233
*977 FILLER_32_245
*978 FILLER_32_251
*979 FILLER_32_253
*980 FILLER_32_265
*981 FILLER_32_27
*982 FILLER_32_277
*983 FILLER_32_289
*984 FILLER_32_29
*985 FILLER_32_3
*986 FILLER_32_301
*987 FILLER_32_307
*988 FILLER_32_309
*989 FILLER_32_321
*990 FILLER_32_329
*991 FILLER_32_41
*992 FILLER_32_53
*993 FILLER_32_65
*994 FILLER_32_77
*995 FILLER_32_83
*996 FILLER_32_85
*997 FILLER_32_97
*998 FILLER_33_105
*999 FILLER_33_110
*1000 FILLER_33_113
*1001 FILLER_33_125
*1002 FILLER_33_131
*1003 FILLER_33_138
*1004 FILLER_33_141
*1005 FILLER_33_145
*1006 FILLER_33_152
*1007 FILLER_33_157
*1008 FILLER_33_167
*1009 FILLER_33_177
*1010 FILLER_33_18
*1011 FILLER_33_194
*1012 FILLER_33_200
*1013 FILLER_33_212
*1014 FILLER_33_225
*1015 FILLER_33_237
*1016 FILLER_33_243
*1017 FILLER_33_251
*1018 FILLER_33_253
*1019 FILLER_33_26
*1020 FILLER_33_265
*1021 FILLER_33_277
*1022 FILLER_33_281
*1023 FILLER_33_29
*1024 FILLER_33_293
*1025 FILLER_33_305
*1026 FILLER_33_309
*1027 FILLER_33_321
*1028 FILLER_33_329
*1029 FILLER_33_41
*1030 FILLER_33_53
*1031 FILLER_33_57
*1032 FILLER_33_6
*1033 FILLER_33_69
*1034 FILLER_33_81
*1035 FILLER_33_85
*1036 FILLER_33_97
*1037 FILLER_3_105
*1038 FILLER_3_111
*1039 FILLER_3_113
*1040 FILLER_3_125
*1041 FILLER_3_137
*1042 FILLER_3_149
*1043 FILLER_3_15
*1044 FILLER_3_161
*1045 FILLER_3_167
*1046 FILLER_3_169
*1047 FILLER_3_181
*1048 FILLER_3_193
*1049 FILLER_3_205
*1050 FILLER_3_217
*1051 FILLER_3_223
*1052 FILLER_3_225
*1053 FILLER_3_237
*1054 FILLER_3_249
*1055 FILLER_3_261
*1056 FILLER_3_27
*1057 FILLER_3_273
*1058 FILLER_3_279
*1059 FILLER_3_281
*1060 FILLER_3_293
*1061 FILLER_3_3
*1062 FILLER_3_305
*1063 FILLER_3_317
*1064 FILLER_3_329
*1065 FILLER_3_39
*1066 FILLER_3_51
*1067 FILLER_3_55
*1068 FILLER_3_57
*1069 FILLER_3_69
*1070 FILLER_3_81
*1071 FILLER_3_93
*1072 FILLER_4_109
*1073 FILLER_4_121
*1074 FILLER_4_133
*1075 FILLER_4_139
*1076 FILLER_4_141
*1077 FILLER_4_15
*1078 FILLER_4_153
*1079 FILLER_4_165
*1080 FILLER_4_177
*1081 FILLER_4_189
*1082 FILLER_4_195
*1083 FILLER_4_197
*1084 FILLER_4_209
*1085 FILLER_4_221
*1086 FILLER_4_233
*1087 FILLER_4_245
*1088 FILLER_4_251
*1089 FILLER_4_253
*1090 FILLER_4_265
*1091 FILLER_4_27
*1092 FILLER_4_277
*1093 FILLER_4_289
*1094 FILLER_4_29
*1095 FILLER_4_3
*1096 FILLER_4_301
*1097 FILLER_4_307
*1098 FILLER_4_309
*1099 FILLER_4_321
*1100 FILLER_4_329
*1101 FILLER_4_41
*1102 FILLER_4_53
*1103 FILLER_4_65
*1104 FILLER_4_77
*1105 FILLER_4_83
*1106 FILLER_4_85
*1107 FILLER_4_97
*1108 FILLER_5_105
*1109 FILLER_5_111
*1110 FILLER_5_113
*1111 FILLER_5_125
*1112 FILLER_5_137
*1113 FILLER_5_149
*1114 FILLER_5_15
*1115 FILLER_5_161
*1116 FILLER_5_167
*1117 FILLER_5_169
*1118 FILLER_5_181
*1119 FILLER_5_193
*1120 FILLER_5_205
*1121 FILLER_5_217
*1122 FILLER_5_223
*1123 FILLER_5_225
*1124 FILLER_5_237
*1125 FILLER_5_249
*1126 FILLER_5_261
*1127 FILLER_5_27
*1128 FILLER_5_273
*1129 FILLER_5_279
*1130 FILLER_5_281
*1131 FILLER_5_293
*1132 FILLER_5_3
*1133 FILLER_5_305
*1134 FILLER_5_317
*1135 FILLER_5_329
*1136 FILLER_5_39
*1137 FILLER_5_51
*1138 FILLER_5_55
*1139 FILLER_5_57
*1140 FILLER_5_69
*1141 FILLER_5_81
*1142 FILLER_5_93
*1143 FILLER_6_109
*1144 FILLER_6_121
*1145 FILLER_6_133
*1146 FILLER_6_139
*1147 FILLER_6_141
*1148 FILLER_6_15
*1149 FILLER_6_153
*1150 FILLER_6_165
*1151 FILLER_6_177
*1152 FILLER_6_189
*1153 FILLER_6_195
*1154 FILLER_6_197
*1155 FILLER_6_209
*1156 FILLER_6_221
*1157 FILLER_6_233
*1158 FILLER_6_245
*1159 FILLER_6_251
*1160 FILLER_6_253
*1161 FILLER_6_265
*1162 FILLER_6_27
*1163 FILLER_6_277
*1164 FILLER_6_289
*1165 FILLER_6_29
*1166 FILLER_6_3
*1167 FILLER_6_301
*1168 FILLER_6_307
*1169 FILLER_6_309
*1170 FILLER_6_321
*1171 FILLER_6_329
*1172 FILLER_6_41
*1173 FILLER_6_53
*1174 FILLER_6_65
*1175 FILLER_6_77
*1176 FILLER_6_83
*1177 FILLER_6_85
*1178 FILLER_6_97
*1179 FILLER_7_105
*1180 FILLER_7_111
*1181 FILLER_7_113
*1182 FILLER_7_125
*1183 FILLER_7_137
*1184 FILLER_7_149
*1185 FILLER_7_15
*1186 FILLER_7_161
*1187 FILLER_7_167
*1188 FILLER_7_169
*1189 FILLER_7_181
*1190 FILLER_7_193
*1191 FILLER_7_205
*1192 FILLER_7_217
*1193 FILLER_7_223
*1194 FILLER_7_225
*1195 FILLER_7_237
*1196 FILLER_7_249
*1197 FILLER_7_261
*1198 FILLER_7_27
*1199 FILLER_7_273
*1200 FILLER_7_279
*1201 FILLER_7_281
*1202 FILLER_7_293
*1203 FILLER_7_3
*1204 FILLER_7_305
*1205 FILLER_7_317
*1206 FILLER_7_329
*1207 FILLER_7_39
*1208 FILLER_7_51
*1209 FILLER_7_55
*1210 FILLER_7_57
*1211 FILLER_7_69
*1212 FILLER_7_81
*1213 FILLER_7_93
*1214 FILLER_8_109
*1215 FILLER_8_121
*1216 FILLER_8_133
*1217 FILLER_8_139
*1218 FILLER_8_141
*1219 FILLER_8_15
*1220 FILLER_8_153
*1221 FILLER_8_165
*1222 FILLER_8_177
*1223 FILLER_8_189
*1224 FILLER_8_195
*1225 FILLER_8_197
*1226 FILLER_8_209
*1227 FILLER_8_221
*1228 FILLER_8_233
*1229 FILLER_8_245
*1230 FILLER_8_251
*1231 FILLER_8_253
*1232 FILLER_8_265
*1233 FILLER_8_27
*1234 FILLER_8_277
*1235 FILLER_8_289
*1236 FILLER_8_29
*1237 FILLER_8_3
*1238 FILLER_8_301
*1239 FILLER_8_307
*1240 FILLER_8_309
*1241 FILLER_8_321
*1242 FILLER_8_329
*1243 FILLER_8_41
*1244 FILLER_8_53
*1245 FILLER_8_65
*1246 FILLER_8_77
*1247 FILLER_8_83
*1248 FILLER_8_85
*1249 FILLER_8_97
*1250 FILLER_9_105
*1251 FILLER_9_111
*1252 FILLER_9_113
*1253 FILLER_9_125
*1254 FILLER_9_137
*1255 FILLER_9_149
*1256 FILLER_9_15
*1257 FILLER_9_161
*1258 FILLER_9_167
*1259 FILLER_9_169
*1260 FILLER_9_181
*1261 FILLER_9_193
*1262 FILLER_9_205
*1263 FILLER_9_217
*1264 FILLER_9_223
*1265 FILLER_9_225
*1266 FILLER_9_237
*1267 FILLER_9_249
*1268 FILLER_9_261
*1269 FILLER_9_27
*1270 FILLER_9_273
*1271 FILLER_9_279
*1272 FILLER_9_281
*1273 FILLER_9_293
*1274 FILLER_9_3
*1275 FILLER_9_305
*1276 FILLER_9_317
*1277 FILLER_9_329
*1278 FILLER_9_39
*1279 FILLER_9_51
*1280 FILLER_9_55
*1281 FILLER_9_57
*1282 FILLER_9_69
*1283 FILLER_9_81
*1284 FILLER_9_93
*1285 PHY_EDGE_ROW_0_Left_34
*1286 PHY_EDGE_ROW_0_Right_0
*1287 PHY_EDGE_ROW_10_Left_44
*1288 PHY_EDGE_ROW_10_Right_10
*1289 PHY_EDGE_ROW_11_Left_45
*1290 PHY_EDGE_ROW_11_Right_11
*1291 PHY_EDGE_ROW_12_Left_46
*1292 PHY_EDGE_ROW_12_Right_12
*1293 PHY_EDGE_ROW_13_Left_47
*1294 PHY_EDGE_ROW_13_Right_13
*1295 PHY_EDGE_ROW_14_Left_48
*1296 PHY_EDGE_ROW_14_Right_14
*1297 PHY_EDGE_ROW_15_Left_49
*1298 PHY_EDGE_ROW_15_Right_15
*1299 PHY_EDGE_ROW_16_Left_50
*1300 PHY_EDGE_ROW_16_Right_16
*1301 PHY_EDGE_ROW_17_Left_51
*1302 PHY_EDGE_ROW_17_Right_17
*1303 PHY_EDGE_ROW_18_Left_52
*1304 PHY_EDGE_ROW_18_Right_18
*1305 PHY_EDGE_ROW_19_Left_53
*1306 PHY_EDGE_ROW_19_Right_19
*1307 PHY_EDGE_ROW_1_Left_35
*1308 PHY_EDGE_ROW_1_Right_1
*1309 PHY_EDGE_ROW_20_Left_54
*1310 PHY_EDGE_ROW_20_Right_20
*1311 PHY_EDGE_ROW_21_Left_55
*1312 PHY_EDGE_ROW_21_Right_21
*1313 PHY_EDGE_ROW_22_Left_56
*1314 PHY_EDGE_ROW_22_Right_22
*1315 PHY_EDGE_ROW_23_Left_57
*1316 PHY_EDGE_ROW_23_Right_23
*1317 PHY_EDGE_ROW_24_Left_58
*1318 PHY_EDGE_ROW_24_Right_24
*1319 PHY_EDGE_ROW_25_Left_59
*1320 PHY_EDGE_ROW_25_Right_25
*1321 PHY_EDGE_ROW_26_Left_60
*1322 PHY_EDGE_ROW_26_Right_26
*1323 PHY_EDGE_ROW_27_Left_61
*1324 PHY_EDGE_ROW_27_Right_27
*1325 PHY_EDGE_ROW_28_Left_62
*1326 PHY_EDGE_ROW_28_Right_28
*1327 PHY_EDGE_ROW_29_Left_63
*1328 PHY_EDGE_ROW_29_Right_29
*1329 PHY_EDGE_ROW_2_Left_36
*1330 PHY_EDGE_ROW_2_Right_2
*1331 PHY_EDGE_ROW_30_Left_64
*1332 PHY_EDGE_ROW_30_Right_30
*1333 PHY_EDGE_ROW_31_Left_65
*1334 PHY_EDGE_ROW_31_Right_31
*1335 PHY_EDGE_ROW_32_Left_66
*1336 PHY_EDGE_ROW_32_Right_32
*1337 PHY_EDGE_ROW_33_Left_67
*1338 PHY_EDGE_ROW_33_Right_33
*1339 PHY_EDGE_ROW_3_Left_37
*1340 PHY_EDGE_ROW_3_Right_3
*1341 PHY_EDGE_ROW_4_Left_38
*1342 PHY_EDGE_ROW_4_Right_4
*1343 PHY_EDGE_ROW_5_Left_39
*1344 PHY_EDGE_ROW_5_Right_5
*1345 PHY_EDGE_ROW_6_Left_40
*1346 PHY_EDGE_ROW_6_Right_6
*1347 PHY_EDGE_ROW_7_Left_41
*1348 PHY_EDGE_ROW_7_Right_7
*1349 PHY_EDGE_ROW_8_Left_42
*1350 PHY_EDGE_ROW_8_Right_8
*1351 PHY_EDGE_ROW_9_Left_43
*1352 PHY_EDGE_ROW_9_Right_9
*1353 TAP_TAPCELL_ROW_0_68
*1354 TAP_TAPCELL_ROW_0_69
*1355 TAP_TAPCELL_ROW_0_70
*1356 TAP_TAPCELL_ROW_0_71
*1357 TAP_TAPCELL_ROW_0_72
*1358 TAP_TAPCELL_ROW_0_73
*1359 TAP_TAPCELL_ROW_0_74
*1360 TAP_TAPCELL_ROW_0_75
*1361 TAP_TAPCELL_ROW_0_76
*1362 TAP_TAPCELL_ROW_0_77
*1363 TAP_TAPCELL_ROW_0_78
*1364 TAP_TAPCELL_ROW_10_128
*1365 TAP_TAPCELL_ROW_10_129
*1366 TAP_TAPCELL_ROW_10_130
*1367 TAP_TAPCELL_ROW_10_131
*1368 TAP_TAPCELL_ROW_10_132
*1369 TAP_TAPCELL_ROW_10_133
*1370 TAP_TAPCELL_ROW_11_134
*1371 TAP_TAPCELL_ROW_11_135
*1372 TAP_TAPCELL_ROW_11_136
*1373 TAP_TAPCELL_ROW_11_137
*1374 TAP_TAPCELL_ROW_11_138
*1375 TAP_TAPCELL_ROW_12_139
*1376 TAP_TAPCELL_ROW_12_140
*1377 TAP_TAPCELL_ROW_12_141
*1378 TAP_TAPCELL_ROW_12_142
*1379 TAP_TAPCELL_ROW_12_143
*1380 TAP_TAPCELL_ROW_12_144
*1381 TAP_TAPCELL_ROW_13_145
*1382 TAP_TAPCELL_ROW_13_146
*1383 TAP_TAPCELL_ROW_13_147
*1384 TAP_TAPCELL_ROW_13_148
*1385 TAP_TAPCELL_ROW_13_149
*1386 TAP_TAPCELL_ROW_14_150
*1387 TAP_TAPCELL_ROW_14_151
*1388 TAP_TAPCELL_ROW_14_152
*1389 TAP_TAPCELL_ROW_14_153
*1390 TAP_TAPCELL_ROW_14_154
*1391 TAP_TAPCELL_ROW_14_155
*1392 TAP_TAPCELL_ROW_15_156
*1393 TAP_TAPCELL_ROW_15_157
*1394 TAP_TAPCELL_ROW_15_158
*1395 TAP_TAPCELL_ROW_15_159
*1396 TAP_TAPCELL_ROW_15_160
*1397 TAP_TAPCELL_ROW_16_161
*1398 TAP_TAPCELL_ROW_16_162
*1399 TAP_TAPCELL_ROW_16_163
*1400 TAP_TAPCELL_ROW_16_164
*1401 TAP_TAPCELL_ROW_16_165
*1402 TAP_TAPCELL_ROW_16_166
*1403 TAP_TAPCELL_ROW_17_167
*1404 TAP_TAPCELL_ROW_17_168
*1405 TAP_TAPCELL_ROW_17_169
*1406 TAP_TAPCELL_ROW_17_170
*1407 TAP_TAPCELL_ROW_17_171
*1408 TAP_TAPCELL_ROW_18_172
*1409 TAP_TAPCELL_ROW_18_173
*1410 TAP_TAPCELL_ROW_18_174
*1411 TAP_TAPCELL_ROW_18_175
*1412 TAP_TAPCELL_ROW_18_176
*1413 TAP_TAPCELL_ROW_18_177
*1414 TAP_TAPCELL_ROW_19_178
*1415 TAP_TAPCELL_ROW_19_179
*1416 TAP_TAPCELL_ROW_19_180
*1417 TAP_TAPCELL_ROW_19_181
*1418 TAP_TAPCELL_ROW_19_182
*1419 TAP_TAPCELL_ROW_1_79
*1420 TAP_TAPCELL_ROW_1_80
*1421 TAP_TAPCELL_ROW_1_81
*1422 TAP_TAPCELL_ROW_1_82
*1423 TAP_TAPCELL_ROW_1_83
*1424 TAP_TAPCELL_ROW_20_183
*1425 TAP_TAPCELL_ROW_20_184
*1426 TAP_TAPCELL_ROW_20_185
*1427 TAP_TAPCELL_ROW_20_186
*1428 TAP_TAPCELL_ROW_20_187
*1429 TAP_TAPCELL_ROW_20_188
*1430 TAP_TAPCELL_ROW_21_189
*1431 TAP_TAPCELL_ROW_21_190
*1432 TAP_TAPCELL_ROW_21_191
*1433 TAP_TAPCELL_ROW_21_192
*1434 TAP_TAPCELL_ROW_21_193
*1435 TAP_TAPCELL_ROW_22_194
*1436 TAP_TAPCELL_ROW_22_195
*1437 TAP_TAPCELL_ROW_22_196
*1438 TAP_TAPCELL_ROW_22_197
*1439 TAP_TAPCELL_ROW_22_198
*1440 TAP_TAPCELL_ROW_22_199
*1441 TAP_TAPCELL_ROW_23_200
*1442 TAP_TAPCELL_ROW_23_201
*1443 TAP_TAPCELL_ROW_23_202
*1444 TAP_TAPCELL_ROW_23_203
*1445 TAP_TAPCELL_ROW_23_204
*1446 TAP_TAPCELL_ROW_24_205
*1447 TAP_TAPCELL_ROW_24_206
*1448 TAP_TAPCELL_ROW_24_207
*1449 TAP_TAPCELL_ROW_24_208
*1450 TAP_TAPCELL_ROW_24_209
*1451 TAP_TAPCELL_ROW_24_210
*1452 TAP_TAPCELL_ROW_25_211
*1453 TAP_TAPCELL_ROW_25_212
*1454 TAP_TAPCELL_ROW_25_213
*1455 TAP_TAPCELL_ROW_25_214
*1456 TAP_TAPCELL_ROW_25_215
*1457 TAP_TAPCELL_ROW_26_216
*1458 TAP_TAPCELL_ROW_26_217
*1459 TAP_TAPCELL_ROW_26_218
*1460 TAP_TAPCELL_ROW_26_219
*1461 TAP_TAPCELL_ROW_26_220
*1462 TAP_TAPCELL_ROW_26_221
*1463 TAP_TAPCELL_ROW_27_222
*1464 TAP_TAPCELL_ROW_27_223
*1465 TAP_TAPCELL_ROW_27_224
*1466 TAP_TAPCELL_ROW_27_225
*1467 TAP_TAPCELL_ROW_27_226
*1468 TAP_TAPCELL_ROW_28_227
*1469 TAP_TAPCELL_ROW_28_228
*1470 TAP_TAPCELL_ROW_28_229
*1471 TAP_TAPCELL_ROW_28_230
*1472 TAP_TAPCELL_ROW_28_231
*1473 TAP_TAPCELL_ROW_28_232
*1474 TAP_TAPCELL_ROW_29_233
*1475 TAP_TAPCELL_ROW_29_234
*1476 TAP_TAPCELL_ROW_29_235
*1477 TAP_TAPCELL_ROW_29_236
*1478 TAP_TAPCELL_ROW_29_237
*1479 TAP_TAPCELL_ROW_2_84
*1480 TAP_TAPCELL_ROW_2_85
*1481 TAP_TAPCELL_ROW_2_86
*1482 TAP_TAPCELL_ROW_2_87
*1483 TAP_TAPCELL_ROW_2_88
*1484 TAP_TAPCELL_ROW_2_89
*1485 TAP_TAPCELL_ROW_30_238
*1486 TAP_TAPCELL_ROW_30_239
*1487 TAP_TAPCELL_ROW_30_240
*1488 TAP_TAPCELL_ROW_30_241
*1489 TAP_TAPCELL_ROW_30_242
*1490 TAP_TAPCELL_ROW_30_243
*1491 TAP_TAPCELL_ROW_31_244
*1492 TAP_TAPCELL_ROW_31_245
*1493 TAP_TAPCELL_ROW_31_246
*1494 TAP_TAPCELL_ROW_31_247
*1495 TAP_TAPCELL_ROW_31_248
*1496 TAP_TAPCELL_ROW_32_249
*1497 TAP_TAPCELL_ROW_32_250
*1498 TAP_TAPCELL_ROW_32_251
*1499 TAP_TAPCELL_ROW_32_252
*1500 TAP_TAPCELL_ROW_32_253
*1501 TAP_TAPCELL_ROW_32_254
*1502 TAP_TAPCELL_ROW_33_255